opendss_networks/LV15_137bus/Groundings.dss
new reactor.tx_busgrounding_B921 phases=1 bus1=B921.4 bus2=B921.0 r=0.3 x=0.0
new reactor.loadbusgrounding_B1514 phases=1 bus1=B1514.4 bus2=B1514.0 r=10.0 x=0.0
new reactor.loadbusgrounding_B2311 phases=1 bus1=B2311.4 bus2=B2311.0 r=10.0 x=0.0
new reactor.loadbusgrounding_B1146 phases=1 bus1=B1146.4 bus2=B1146.0 r=10.0 x=0.0
new reactor.loadbusgrounding_B1596 phases=1 bus1=B1596.4 bus2=B1596.0 r=10.0 x=0.0
new reactor.loadbusgrounding_B1451 phases=1 bus1=B1451.4 bus2=B1451.0 r=10.0 x=0.0
new reactor.loadbusgrounding_B2924 phases=1 bus1=B2924.4 bus2=B2924.0 r=10.0 x=0.0
new reactor.loadbusgrounding_B3091 phases=1 bus1=B3091.4 bus2=B3091.0 r=10.0 x=0.0
new reactor.loadbusgrounding_B2636 phases=1 bus1=B2636.4 bus2=B2636.0 r=10.0 x=0.0
new reactor.loadbusgrounding_B2466 phases=1 bus1=B2466.4 bus2=B2466.0 r=10.0 x=0.0
new reactor.loadbusgrounding_B1371 phases=1 bus1=B1371.4 bus2=B1371.0 r=10.0 x=0.0
new reactor.loadbusgrounding_B1206 phases=1 bus1=B1206.4 bus2=B1206.0 r=10.0 x=0.0
new reactor.loadbusgrounding_B2569 phases=1 bus1=B2569.4 bus2=B2569.0 r=10.0 x=0.0
new reactor.loadbusgrounding_B2876 phases=1 bus1=B2876.4 bus2=B2876.0 r=10.0 x=0.0
new reactor.loadbusgrounding_B2509 phases=1 bus1=B2509.4 bus2=B2509.0 r=10.0 x=0.0
new reactor.loadbusgrounding_B1897 phases=1 bus1=B1897.4 bus2=B1897.0 r=10.0 x=0.0
new reactor.loadbusgrounding_B2478 phases=1 bus1=B2478.4 bus2=B2478.0 r=10.0 x=0.0
new reactor.loadbusgrounding_B663 phases=1 bus1=B663.4 bus2=B663.0 r=10.0 x=0.0
new reactor.loadbusgrounding_B109 phases=1 bus1=B109.4 bus2=B109.0 r=10.0 x=0.0
new reactor.loadbusgrounding_B3189 phases=1 bus1=B3189.4 bus2=B3189.0 r=10.0 x=0.0
new reactor.loadbusgrounding_B2760 phases=1 bus1=B2760.4 bus2=B2760.0 r=10.0 x=0.0
new reactor.loadbusgrounding_B2721 phases=1 bus1=B2721.4 bus2=B2721.0 r=10.0 x=0.0
new reactor.loadbusgrounding_B2357 phases=1 bus1=B2357.4 bus2=B2357.0 r=10.0 x=0.0
new reactor.loadbusgrounding_B1472 phases=1 bus1=B1472.4 bus2=B1472.0 r=10.0 x=0.0
new reactor.loadbusgrounding_B601 phases=1 bus1=B601.4 bus2=B601.0 r=10.0 x=0.0
new reactor.loadbusgrounding_B3033 phases=1 bus1=B3033.4 bus2=B3033.0 r=10.0 x=0.0
new reactor.loadbusgrounding_B1675 phases=1 bus1=B1675.4 bus2=B1675.0 r=10.0 x=0.0
new reactor.loadbusgrounding_B1345 phases=1 bus1=B1345.4 bus2=B1345.0 r=10.0 x=0.0
new reactor.loadbusgrounding_B980 phases=1 bus1=B980.4 bus2=B980.0 r=10.0 x=0.0
new reactor.loadbusgrounding_B1381 phases=1 bus1=B1381.4 bus2=B1381.0 r=10.0 x=0.0
new reactor.loadbusgrounding_B3166 phases=1 bus1=B3166.4 bus2=B3166.0 r=10.0 x=0.0
new reactor.loadbusgrounding_B3223 phases=1 bus1=B3223.4 bus2=B3223.0 r=10.0 x=0.0
new reactor.loadbusgrounding_B488 phases=1 bus1=B488.4 bus2=B488.0 r=10.0 x=0.0
new reactor.loadbusgrounding_B1170 phases=1 bus1=B1170.4 bus2=B1170.0 r=10.0 x=0.0
new reactor.loadbusgrounding_B2648 phases=1 bus1=B2648.4 bus2=B2648.0 r=10.0 x=0.0
new reactor.loadbusgrounding_B2378 phases=1 bus1=B2378.4 bus2=B2378.0 r=10.0 x=0.0
new reactor.loadbusgrounding_B949 phases=1 bus1=B949.4 bus2=B949.0 r=10.0 x=0.0
new reactor.loadbusgrounding_B66 phases=1 bus1=B66.4 bus2=B66.0 r=10.0 x=0.0
new reactor.loadbusgrounding_B1291 phases=1 bus1=B1291.4 bus2=B1291.0 r=10.0 x=0.0
new reactor.loadbusgrounding_B2567 phases=1 bus1=B2567.4 bus2=B2567.0 r=10.0 x=0.0
new reactor.loadbusgrounding_B1677 phases=1 bus1=B1677.4 bus2=B1677.0 r=10.0 x=0.0
new reactor.loadbusgrounding_B384 phases=1 bus1=B384.4 bus2=B384.0 r=10.0 x=0.0
new reactor.loadbusgrounding_B2532 phases=1 bus1=B2532.4 bus2=B2532.0 r=10.0 x=0.0
new reactor.loadbusgrounding_B458 phases=1 bus1=B458.4 bus2=B458.0 r=10.0 x=0.0
new reactor.loadbusgrounding_B1836 phases=1 bus1=B1836.4 bus2=B1836.0 r=10.0 x=0.0
new reactor.loadbusgrounding_B1066 phases=1 bus1=B1066.4 bus2=B1066.0 r=10.0 x=0.0
new reactor.loadbusgrounding_B654 phases=1 bus1=B654.4 bus2=B654.0 r=10.0 x=0.0
